
     RDKit          3D

 40 42  0  0  0  0  0  0  0  0999 V2000
   -0.1511    3.8483    9.1039 N   0  0  0  0  0  0  0  0  0  0  0  0
   -0.1661    3.1220    7.9082 C   0  0  0  0  0  0  0  0  0  0  0  0
    0.8570    3.2874    6.9710 C   0  0  0  0  0  0  0  0  0  0  0  0
    0.7920    2.6576    5.7237 C   0  0  0  0  0  0  0  0  0  0  0  0
   -1.3035    2.3991    7.5381 C   0  0  0  0  0  0  0  0  0  0  0  0
   -1.3757    1.7673    6.2923 C   0  0  0  0  0  0  0  0  0  0  0  0
   -0.3220    1.8891    5.3865 C   0  0  0  0  0  0  0  0  0  0  0  0
   -0.3904    1.2445    4.1122 C   0  0  0  0  0  0  0  0  0  0  0  0
   -0.4458    0.7026    3.0414 C   0  0  0  0  0  0  0  0  0  0  0  0
   -0.5122    0.0585    1.7665 C   0  0  0  0  0  0  0  0  0  0  0  0
   -0.3948   -1.3308    1.6776 C   0  0  0  0  0  0  0  0  0  0  0  0
   -0.4614   -1.9606    0.4312 C   0  0  0  0  0  0  0  0  0  0  0  0
   -0.6452   -1.2013   -0.7274 C   0  0  0  0  0  0  0  0  0  0  0  0
   -0.7158   -1.8454   -2.0019 C   0  0  0  0  0  0  0  0  0  0  0  0
   -0.7768   -2.3870   -3.0726 C   0  0  0  0  0  0  0  0  0  0  0  0
   -0.8500   -3.0323   -4.3465 C   0  0  0  0  0  0  0  0  0  0  0  0
   -2.0765   -3.1590   -4.9983 C   0  0  0  0  0  0  0  0  0  0  0  0
   -2.1451   -3.7945   -6.2425 C   0  0  0  0  0  0  0  0  0  0  0  0
   -0.9893   -4.2705   -6.8667 C   0  0  0  0  0  0  0  0  0  0  0  0
   -1.0809   -5.0086   -8.0516 N   0  0  0  0  0  0  0  0  0  0  0  0
    0.2243   -4.1914   -6.1784 C   0  0  0  0  0  0  0  0  0  0  0  0
    0.3009   -3.5569   -4.9343 C   0  0  0  0  0  0  0  0  0  0  0  0
   -0.7616    0.1883   -0.6386 C   0  0  0  0  0  0  0  0  0  0  0  0
   -0.6952    0.8178    0.6078 C   0  0  0  0  0  0  0  0  0  0  0  0
    0.7809    4.0764    9.4354 H   0  0  0  0  0  0  0  0  0  0  0  0
   -0.7323    3.4489    9.8344 H   0  0  0  0  0  0  0  0  0  0  0  0
    1.7183    3.9084    7.2030 H   0  0  0  0  0  0  0  0  0  0  0  0
    1.6093    2.7834    5.0180 H   0  0  0  0  0  0  0  0  0  0  0  0
   -2.1470    2.3200    8.2189 H   0  0  0  0  0  0  0  0  0  0  0  0
   -2.2623    1.1941    6.0331 H   0  0  0  0  0  0  0  0  0  0  0  0
   -0.2517   -1.9301    2.5739 H   0  0  0  0  0  0  0  0  0  0  0  0
   -0.3698   -3.0429    0.3720 H   0  0  0  0  0  0  0  0  0  0  0  0
   -2.9864   -2.7798   -4.5400 H   0  0  0  0  0  0  0  0  0  0  0  0
   -3.1136   -3.9139   -6.7209 H   0  0  0  0  0  0  0  0  0  0  0  0
   -0.2167   -5.0421   -8.5831 H   0  0  0  0  0  0  0  0  0  0  0  0
   -1.8786   -4.7619   -8.6291 H   0  0  0  0  0  0  0  0  0  0  0  0
    1.1252   -4.6233   -6.6058 H   0  0  0  0  0  0  0  0  0  0  0  0
    1.2595   -3.4899   -4.4262 H   0  0  0  0  0  0  0  0  0  0  0  0
   -0.9046    0.7877   -1.5348 H   0  0  0  0  0  0  0  0  0  0  0  0
   -0.7872    1.8999    0.6672 H   0  0  0  0  0  0  0  0  0  0  0  0
  1  2  1  0
  2  3  2  0
  3  4  1  0
  2  5  1  0
  5  6  2  0
  6  7  1  0
  7  8  1  0
  8  9  3  0
  9 10  1  0
 10 11  2  0
 11 12  1  0
 12 13  2  0
 13 14  1  0
 14 15  3  0
 15 16  1  0
 16 17  2  0
 17 18  1  0
 18 19  2  0
 19 20  1  0
 19 21  1  0
 21 22  2  0
 13 23  1  0
 23 24  2  0
  7  4  2  0
 24 10  1  0
 22 16  1  0
  1 25  1  0
  1 26  1  0
  3 27  1  0
  4 28  1  0
  5 29  1  0
  6 30  1  0
 11 31  1  0
 12 32  1  0
 17 33  1  0
 18 34  1  0
 20 35  1  0
 20 36  1  0
 21 37  1  0
 22 38  1  0
 23 39  1  0
 24 40  1  0
M  END
