
     RDKit          3D

 18 18  0  0  0  0  0  0  0  0999 V2000
    1.7804    3.5177    0.2416 O   0  0  0  0  0  0  0  0  0  0  0  0
    1.8989    2.4092   -0.2652 C   0  0  0  0  0  0  0  0  0  0  0  0
    1.3021    1.2128    0.3593 C   0  0  0  0  0  0  0  0  0  0  0  0
    1.4620   -0.0319   -0.2531 C   0  0  0  0  0  0  0  0  0  0  0  0
    0.8955   -1.1657    0.3401 C   0  0  0  0  0  0  0  0  0  0  0  0
    1.0562   -2.4878   -0.2955 C   0  0  0  0  0  0  0  0  0  0  0  0
    1.6799   -2.6195   -1.3411 O   0  0  0  0  0  0  0  0  0  0  0  0
    0.1762   -1.0615    1.5324 C   0  0  0  0  0  0  0  0  0  0  0  0
    0.0245    0.1928    2.1342 C   0  0  0  0  0  0  0  0  0  0  0  0
   -0.7331    0.3184    3.3944 C   0  0  0  0  0  0  0  0  0  0  0  0
   -1.2383   -0.6584    3.9332 O   0  0  0  0  0  0  0  0  0  0  0  0
    0.5839    1.3333    1.5544 C   0  0  0  0  0  0  0  0  0  0  0  0
    2.4546    2.2585   -1.2061 H   0  0  0  0  0  0  0  0  0  0  0  0
    2.0199   -0.1302   -1.1829 H   0  0  0  0  0  0  0  0  0  0  0  0
    0.5899   -3.3482    0.2135 H   0  0  0  0  0  0  0  0  0  0  0  0
   -0.2662   -1.9410    1.9974 H   0  0  0  0  0  0  0  0  0  0  0  0
   -0.8224    1.3295    3.8263 H   0  0  0  0  0  0  0  0  0  0  0  0
    0.4683    2.3110    2.0191 H   0  0  0  0  0  0  0  0  0  0  0  0
  1  2  2  0
  2  3  1  0
  3  4  2  0
  4  5  1  0
  5  6  1  0
  6  7  2  0
  5  8  2  0
  8  9  1  0
  9 10  1  0
 10 11  2  0
  9 12  2  0
 12  3  1  0
  2 13  1  0
  4 14  1  0
  6 15  1  0
  8 16  1  0
 10 17  1  0
 12 18  1  0
M  END
