
     RDKit          3D

 82 88  0  0  0  0  0  0  0  0999 V2000
   -1.3079   -2.7097   -7.4835 O   0  0  0  0  0  0  0  0  0  0  0  0
   -1.8434   -1.8300   -6.8135 C   0  0  0  0  0  0  0  0  0  0  0  0
   -1.3760   -1.4516   -5.4627 C   0  0  0  0  0  0  0  0  0  0  0  0
   -2.2137   -0.6910   -4.6449 C   0  0  0  0  0  0  0  0  0  0  0  0
   -1.7987   -0.3512   -3.3546 C   0  0  0  0  0  0  0  0  0  0  0  0
   -0.1186   -1.8505   -5.0070 C   0  0  0  0  0  0  0  0  0  0  0  0
    0.3007   -1.4830   -3.7245 C   0  0  0  0  0  0  0  0  0  0  0  0
   -0.5395   -0.7449   -2.8726 C   0  0  0  0  0  0  0  0  0  0  0  0
   -0.1302   -0.4246   -1.4828 C   0  0  0  0  0  0  0  0  0  0  0  0
   -0.1876   -1.4321   -0.4719 C   0  0  0  0  0  0  0  0  0  0  0  0
   -0.6695   -2.7953   -0.8103 C   0  0  0  0  0  0  0  0  0  0  0  0
    0.2293   -3.8039   -1.2043 C   0  0  0  0  0  0  0  0  0  0  0  0
   -0.2259   -5.0798   -1.5518 C   0  0  0  0  0  0  0  0  0  0  0  0
   -1.5878   -5.3523   -1.5030 C   0  0  0  0  0  0  0  0  0  0  0  0
   -2.0848   -6.5735   -1.8492 O   0  0  0  0  0  0  0  0  0  0  0  0
   -2.4943   -4.3776   -1.0962 C   0  0  0  0  0  0  0  0  0  0  0  0
   -2.0381   -3.1038   -0.7564 C   0  0  0  0  0  0  0  0  0  0  0  0
    0.1933   -1.1221    0.8681 C   0  0  0  0  0  0  0  0  0  0  0  0
    0.1511   -2.1761    1.9079 C   0  0  0  0  0  0  0  0  0  0  0  0
    1.2666   -2.9996    2.1406 C   0  0  0  0  0  0  0  0  0  0  0  0
    1.2140   -4.0260    3.0870 C   0  0  0  0  0  0  0  0  0  0  0  0
    0.0345   -4.2407    3.8032 C   0  0  0  0  0  0  0  0  0  0  0  0
   -0.0342   -5.3536    4.7676 C   0  0  0  0  0  0  0  0  0  0  0  0
   -1.0754   -5.6761    5.3276 O   0  0  0  0  0  0  0  0  0  0  0  0
   -1.0791   -3.4239    3.5996 C   0  0  0  0  0  0  0  0  0  0  0  0
   -1.0171   -2.3947    2.6595 C   0  0  0  0  0  0  0  0  0  0  0  0
    0.6037    0.1993    1.2036 C   0  0  0  0  0  0  0  0  0  0  0  0
    0.9807    0.5252    2.5983 C   0  0  0  0  0  0  0  0  0  0  0  0
    0.0221    1.0198    3.5000 C   0  0  0  0  0  0  0  0  0  0  0  0
    0.3759    1.3388    4.8127 C   0  0  0  0  0  0  0  0  0  0  0  0
    1.6928    1.1563    5.2375 C   0  0  0  0  0  0  0  0  0  0  0  0
    2.0705    1.4710    6.6294 C   0  0  0  0  0  0  0  0  0  0  0  0
    1.2674    1.9118    7.4422 O   0  0  0  0  0  0  0  0  0  0  0  0
    2.6603    0.6616    4.3579 C   0  0  0  0  0  0  0  0  0  0  0  0
    2.3038    0.3514    3.0432 C   0  0  0  0  0  0  0  0  0  0  0  0
    0.6431    1.2091    0.1973 C   0  0  0  0  0  0  0  0  0  0  0  0
    1.0400    2.5945    0.5476 C   0  0  0  0  0  0  0  0  0  0  0  0
    2.3792    3.0062    0.4454 C   0  0  0  0  0  0  0  0  0  0  0  0
    2.7474    4.3208    0.7407 C   0  0  0  0  0  0  0  0  0  0  0  0
    1.7714    5.2367    1.1418 C   0  0  0  0  0  0  0  0  0  0  0  0
    2.1613    6.6350    1.4158 C   0  0  0  0  0  0  0  0  0  0  0  0
    1.3512    7.4995    1.7267 O   0  0  0  0  0  0  0  0  0  0  0  0
    0.4372    4.8438    1.2613 C   0  0  0  0  0  0  0  0  0  0  0  0
    0.0769    3.5280    0.9693 C   0  0  0  0  0  0  0  0  0  0  0  0
    0.2887    0.8942   -1.1477 C   0  0  0  0  0  0  0  0  0  0  0  0
    0.3599    1.9428   -2.1974 C   0  0  0  0  0  0  0  0  0  0  0  0
   -0.7131    2.8286   -2.4042 C   0  0  0  0  0  0  0  0  0  0  0  0
   -0.6413    3.8180   -3.3858 C   0  0  0  0  0  0  0  0  0  0  0  0
    0.5036    3.9281   -4.1645 C   0  0  0  0  0  0  0  0  0  0  0  0
    0.5320    4.8979   -5.1221 O   0  0  0  0  0  0  0  0  0  0  0  0
    1.5792    3.0682   -3.9789 C   0  0  0  0  0  0  0  0  0  0  0  0
    1.5066    2.0746   -2.9980 C   0  0  0  0  0  0  0  0  0  0  0  0
   -2.7306   -1.2928   -7.1844 H   0  0  0  0  0  0  0  0  0  0  0  0
   -3.1986   -0.3841   -4.9854 H   0  0  0  0  0  0  0  0  0  0  0  0
   -2.4693    0.2291   -2.7191 H   0  0  0  0  0  0  0  0  0  0  0  0
    0.5258   -2.4607   -5.6391 H   0  0  0  0  0  0  0  0  0  0  0  0
    1.2749   -1.8200   -3.3719 H   0  0  0  0  0  0  0  0  0  0  0  0
    1.2959   -3.5912   -1.2541 H   0  0  0  0  0  0  0  0  0  0  0  0
    0.4936   -5.8309   -1.8693 H   0  0  0  0  0  0  0  0  0  0  0  0
   -1.3519   -7.1344   -2.1495 H   0  0  0  0  0  0  0  0  0  0  0  0
   -3.5591   -4.6046   -1.0505 H   0  0  0  0  0  0  0  0  0  0  0  0
   -2.7586   -2.3469   -0.4537 H   0  0  0  0  0  0  0  0  0  0  0  0
    2.1764   -2.8445    1.5692 H   0  0  0  0  0  0  0  0  0  0  0  0
    2.0868   -4.6576    3.2356 H   0  0  0  0  0  0  0  0  0  0  0  0
    0.9062   -5.9067    4.9368 H   0  0  0  0  0  0  0  0  0  0  0  0
   -1.9959   -3.5973    4.1578 H   0  0  0  0  0  0  0  0  0  0  0  0
   -1.8972   -1.7680    2.5038 H   0  0  0  0  0  0  0  0  0  0  0  0
   -1.0114    1.1585    3.1839 H   0  0  0  0  0  0  0  0  0  0  0  0
   -0.3780    1.7257    5.4971 H   0  0  0  0  0  0  0  0  0  0  0  0
    3.1171    1.2728    6.9127 H   0  0  0  0  0  0  0  0  0  0  0  0
    3.6887    0.5106    4.6813 H   0  0  0  0  0  0  0  0  0  0  0  0
    3.0614   -0.0253    2.3590 H   0  0  0  0  0  0  0  0  0  0  0  0
    3.1377    2.3030    0.1107 H   0  0  0  0  0  0  0  0  0  0  0  0
    3.7887    4.6134    0.6449 H   0  0  0  0  0  0  0  0  0  0  0  0
    3.2301    6.8794    1.3017 H   0  0  0  0  0  0  0  0  0  0  0  0
   -0.3221    5.5626    1.5599 H   0  0  0  0  0  0  0  0  0  0  0  0
   -0.9663    3.2301    1.0579 H   0  0  0  0  0  0  0  0  0  0  0  0
   -1.6160    2.7401   -1.8017 H   0  0  0  0  0  0  0  0  0  0  0  0
   -1.4756    4.4937   -3.5447 H   0  0  0  0  0  0  0  0  0  0  0  0
    1.3540    4.8120   -5.6349 H   0  0  0  0  0  0  0  0  0  0  0  0
    2.4761    3.1539   -4.5831 H   0  0  0  0  0  0  0  0  0  0  0  0
    2.3515    1.4020   -2.8613 H   0  0  0  0  0  0  0  0  0  0  0  0
  1  2  2  0
  2  3  1  0
  3  4  2  0
  4  5  1  0
  3  6  1  0
  6  7  2  0
  7  8  1  0
  8  9  1  0
  9 10  2  0
 10 11  1  0
 11 12  2  0
 12 13  1  0
 13 14  2  0
 14 15  1  0
 14 16  1  0
 16 17  2  0
 10 18  1  0
 18 19  1  0
 19 20  2  0
 20 21  1  0
 21 22  2  0
 22 23  1  0
 23 24  2  0
 22 25  1  0
 25 26  2  0
 18 27  2  0
 27 28  1  0
 28 29  2  0
 29 30  1  0
 30 31  2  0
 31 32  1  0
 32 33  2  0
 31 34  1  0
 34 35  2  0
 27 36  1  0
 36 37  1  0
 37 38  2  0
 38 39  1  0
 39 40  2  0
 40 41  1  0
 41 42  2  0
 40 43  1  0
 43 44  2  0
 36 45  2  0
 45 46  1  0
 46 47  2  0
 47 48  1  0
 48 49  2  0
 49 50  1  0
 49 51  1  0
 51 52  2  0
  8  5  2  0
 45  9  1  0
 17 11  1  0
 26 19  1  0
 35 28  1  0
 44 37  1  0
 52 46  1  0
  2 53  1  0
  4 54  1  0
  5 55  1  0
  6 56  1  0
  7 57  1  0
 12 58  1  0
 13 59  1  0
 15 60  1  0
 16 61  1  0
 17 62  1  0
 20 63  1  0
 21 64  1  0
 23 65  1  0
 25 66  1  0
 26 67  1  0
 29 68  1  0
 30 69  1  0
 32 70  1  0
 34 71  1  0
 35 72  1  0
 38 73  1  0
 39 74  1  0
 41 75  1  0
 43 76  1  0
 44 77  1  0
 47 78  1  0
 48 79  1  0
 50 80  1  0
 51 81  1  0
 52 82  1  0
M  END
