
     RDKit          3D

 60 64  0  0  0  0  0  0  0  0999 V2000
    1.2834    2.0417    0.2411 O   0  0  0  0  0  0  0  0  0  0  0  0
    0.7339    0.9643    0.0263 C   0  0  0  0  0  0  0  0  0  0  0  0
    0.5682    0.4649   -1.3694 C   0  0  0  0  0  0  0  0  0  0  0  0
    1.1729    1.2602   -2.4640 C   0  0  0  0  0  0  0  0  0  0  0  0
    0.5664    2.4538   -2.8819 C   0  0  0  0  0  0  0  0  0  0  0  0
    1.1156    3.1947   -3.9304 C   0  0  0  0  0  0  0  0  0  0  0  0
    2.2787    2.7474   -4.5623 C   0  0  0  0  0  0  0  0  0  0  0  0
    2.8610    3.5210   -5.6771 C   0  0  0  0  0  0  0  0  0  0  0  0
    2.3320    4.5378   -6.1083 O   0  0  0  0  0  0  0  0  0  0  0  0
    2.8997    1.5668   -4.1479 C   0  0  0  0  0  0  0  0  0  0  0  0
    2.3472    0.8266   -3.0986 C   0  0  0  0  0  0  0  0  0  0  0  0
   -0.1284   -0.6634   -1.6123 C   0  0  0  0  0  0  0  0  0  0  0  0
   -0.3360   -1.1759   -2.9878 C   0  0  0  0  0  0  0  0  0  0  0  0
    0.3884   -2.2902   -3.4354 C   0  0  0  0  0  0  0  0  0  0  0  0
    0.2123   -2.7703   -4.7350 C   0  0  0  0  0  0  0  0  0  0  0  0
   -0.6932   -2.1399   -5.5921 C   0  0  0  0  0  0  0  0  0  0  0  0
   -0.8831   -2.6404   -6.9683 C   0  0  0  0  0  0  0  0  0  0  0  0
   -0.2571   -3.5995   -7.4028 O   0  0  0  0  0  0  0  0  0  0  0  0
   -1.4282   -1.0354   -5.1557 C   0  0  0  0  0  0  0  0  0  0  0  0
   -1.2510   -0.5577   -3.8540 C   0  0  0  0  0  0  0  0  0  0  0  0
    0.2289    0.1305    1.1579 C   0  0  0  0  0  0  0  0  0  0  0  0
    0.4935    0.6130    2.5350 C   0  0  0  0  0  0  0  0  0  0  0  0
    1.7905    0.5436    3.0644 C   0  0  0  0  0  0  0  0  0  0  0  0
    2.0477    0.9867    4.3637 C   0  0  0  0  0  0  0  0  0  0  0  0
    1.0085    1.5063    5.1387 C   0  0  0  0  0  0  0  0  0  0  0  0
    1.2719    1.9772    6.5130 C   0  0  0  0  0  0  0  0  0  0  0  0
    2.3892    1.9362    7.0127 O   0  0  0  0  0  0  0  0  0  0  0  0
   -0.2862    1.5893    4.6212 C   0  0  0  0  0  0  0  0  0  0  0  0
   -0.5408    1.1461    3.3202 C   0  0  0  0  0  0  0  0  0  0  0  0
   -0.4406   -1.0155    0.9167 C   0  0  0  0  0  0  0  0  0  0  0  0
   -0.9416   -1.8819    2.0120 C   0  0  0  0  0  0  0  0  0  0  0  0
   -0.0523   -2.6302    2.7979 C   0  0  0  0  0  0  0  0  0  0  0  0
   -0.5312   -3.4414    3.8293 C   0  0  0  0  0  0  0  0  0  0  0  0
   -1.9042   -3.5170    4.0730 C   0  0  0  0  0  0  0  0  0  0  0  0
   -2.4198   -4.3785    5.1555 C   0  0  0  0  0  0  0  0  0  0  0  0
   -1.6760   -5.0165    5.8895 O   0  0  0  0  0  0  0  0  0  0  0  0
   -2.8018   -2.7856    3.2923 C   0  0  0  0  0  0  0  0  0  0  0  0
   -2.3193   -1.9704    2.2648 C   0  0  0  0  0  0  0  0  0  0  0  0
   -0.7190   -1.4441   -0.4867 C   0  0  0  0  0  0  0  0  0  0  0  0
   -1.4213   -2.4267   -0.7124 O   0  0  0  0  0  0  0  0  0  0  0  0
   -0.3332    2.8206   -2.3915 H   0  0  0  0  0  0  0  0  0  0  0  0
    0.6393    4.1207   -4.2478 H   0  0  0  0  0  0  0  0  0  0  0  0
    3.7982    3.1331   -6.1107 H   0  0  0  0  0  0  0  0  0  0  0  0
    3.8069    1.2121   -4.6302 H   0  0  0  0  0  0  0  0  0  0  0  0
    2.8393   -0.0913   -2.7839 H   0  0  0  0  0  0  0  0  0  0  0  0
    1.0890   -2.7992   -2.7766 H   0  0  0  0  0  0  0  0  0  0  0  0
    0.7760   -3.6377   -5.0738 H   0  0  0  0  0  0  0  0  0  0  0  0
   -1.6198   -2.1055   -7.5909 H   0  0  0  0  0  0  0  0  0  0  0  0
   -2.1393   -0.5407   -5.8127 H   0  0  0  0  0  0  0  0  0  0  0  0
   -1.8325    0.3002   -3.5230 H   0  0  0  0  0  0  0  0  0  0  0  0
    2.6135    0.1528    2.4695 H   0  0  0  0  0  0  0  0  0  0  0  0
    3.0575    0.9311    4.7661 H   0  0  0  0  0  0  0  0  0  0  0  0
    0.4071    2.3678    7.0750 H   0  0  0  0  0  0  0  0  0  0  0  0
   -1.1004    1.9986    5.2134 H   0  0  0  0  0  0  0  0  0  0  0  0
   -1.5516    1.2225    2.9251 H   0  0  0  0  0  0  0  0  0  0  0  0
    1.0196   -2.5923    2.6166 H   0  0  0  0  0  0  0  0  0  0  0  0
    0.1666   -4.0174    4.4344 H   0  0  0  0  0  0  0  0  0  0  0  0
   -3.5154   -4.4171    5.2755 H   0  0  0  0  0  0  0  0  0  0  0  0
   -3.8730   -2.8468    3.4647 H   0  0  0  0  0  0  0  0  0  0  0  0
   -3.0282   -1.4177    1.6514 H   0  0  0  0  0  0  0  0  0  0  0  0
  1  2  2  0
  2  3  1  0
  3  4  1  0
  4  5  2  0
  5  6  1  0
  6  7  2  0
  7  8  1  0
  8  9  2  0
  7 10  1  0
 10 11  2  0
  3 12  2  0
 12 13  1  0
 13 14  2  0
 14 15  1  0
 15 16  2  0
 16 17  1  0
 17 18  2  0
 16 19  1  0
 19 20  2  0
  2 21  1  0
 21 22  1  0
 22 23  2  0
 23 24  1  0
 24 25  2  0
 25 26  1  0
 26 27  2  0
 25 28  1  0
 28 29  2  0
 21 30  2  0
 30 31  1  0
 31 32  2  0
 32 33  1  0
 33 34  2  0
 34 35  1  0
 35 36  2  0
 34 37  1  0
 37 38  2  0
 30 39  1  0
 39 40  2  0
 11  4  1  0
 39 12  1  0
 20 13  1  0
 29 22  1  0
 38 31  1  0
  5 41  1  0
  6 42  1  0
  8 43  1  0
 10 44  1  0
 11 45  1  0
 14 46  1  0
 15 47  1  0
 17 48  1  0
 19 49  1  0
 20 50  1  0
 23 51  1  0
 24 52  1  0
 26 53  1  0
 28 54  1  0
 29 55  1  0
 32 56  1  0
 33 57  1  0
 35 58  1  0
 37 59  1  0
 38 60  1  0
M  END
