35.pdb
 OpenBabel05181708503D

  0  0  0     0  0            999 V3000
M  V30 BEGIN CTAB
M  V30 COUNTS 18 18 0 0 0
M  V30 BEGIN ATOM
M  V30 1 O 1.78 3.518 0.242 0
M  V30 2 C 1.899 2.409 -0.265 0
M  V30 3  Si 1.302 1.213 0.359 0
M  V30 4  Si 1.462 -0.032 -0.253 0
M  V30 5  Si 0.895 -1.166 0.34 0
M  V30 6 C 1.056 -2.488 -0.295 0
M  V30 7 O 1.68 -2.619 -1.341 0
M  V30 8  Si 0.176 -1.062 1.532 0
M  V30 9  Si 0.025 0.193 2.134 0
M  V30 10 C -0.733 0.318 3.394 0
M  V30 11 O -1.238 -0.658 3.933 0
M  V30 12  Si 0.584 1.333 1.554 0
M  V30 13 H 2.455 2.259 -1.206 0
M  V30 14 H 2.02 -0.13 -1.183 0
M  V30 15 H 0.59 -3.348 0.213 0
M  V30 16 H -0.266 -1.941 1.997 0
M  V30 17 H -0.822 1.329 3.826 0
M  V30 18 H 0.468 2.311 2.019 0
M  V30 END ATOM
M  V30 BEGIN BOND
M  V30 1 2 1 2
M  V30 2 1 2 3
M  V30 3 1 2 13
M  V30 4 2 3 4
M  V30 5 1 3 12
M  V30 6 1 4 5
M  V30 7 1 4 14
M  V30 8 1 5 6
M  V30 9 2 5 8
M  V30 10 2 6 7
M  V30 11 1 6 15
M  V30 12 1 8 9
M  V30 13 1 8 16
M  V30 14 1 9 10
M  V30 15 2 9 12
M  V30 16 2 10 11
M  V30 17 1 10 17
M  V30 18 1 12 18
M  V30 END BOND
M  V30 END CTAB
M  END
