47.pdb
 OpenBabel05181717273D

  0  0  0     0  0            999 V3000
M  V30 BEGIN CTAB
M  V30 COUNTS 54 57 0 0 0
M  V30 BEGIN ATOM
M  V30 1 O 1.118 1.696 -1.977 0
M  V30 2 Si 1.446 1.845 -0.801 0
M  V30 3 Si 2.746 2.468 -0.551 0
M  V30 4 Si 2.819 3.86 -0.428 0
M  V30 5 Si 4.051 4.501 -0.593 0
M  V30 6 Si 5.193 3.748 -0.891 0
M  V30 7 C 6.472 4.425 -1.191 0
M  V30 8 O 6.591 5.643 -1.142 0
M  V30 9 Si 5.123 2.355 -0.983 0
M  V30 10 Si 3.892 1.714 -0.825 0
M  V30 11 Si 0.501 1.416 0.247 0
M  V30 12 Si 0.714 0.222 0.966 0
M  V30 13 Si -0.384 -0.448 1.532 0
M  V30 14 Si -0.395 -1.847 2.068 0
M  V30 15 Si 0.716 -2.662 2.628 0
M  V30 16 Si 0.333 -3.589 3.621 0
M  V30 17 Si 1.22 -4.548 4.111 0
M  V30 18 Si 2.52 -4.59 3.617 0
M  V30 19 C 3.443 -5.651 4.071 0
M  V30 20 O 3.107 -6.499 4.888 0
M  V30 21 Si 2.933 -3.661 2.655 0
M  V30 22 Si 2.028 -2.706 2.152 0
M  V30 23 O -1.493 -2.418 2.062 0
M  V30 24 Si -1.675 0.128 1.401 0
M  V30 25 Si -1.872 1.303 0.68 0
M  V30 26 Si -3.154 1.536 -0 0
M  V30 27 Si -4.355 2.126 0.602 0
M  V30 28 Si -5.069 1.506 1.629 0
M  V30 29 Si -6.38 1.926 1.894 0
M  V30 30 Si -6.959 2.955 1.137 0
M  V30 31 C  -8.385 3.304 1.302 0
M  V30 32 O -9.099 2.751 2.129 0
M  V30 33 Si -6.22 3.618 0.158 0
M  V30 34 Si -4.92 3.198 -0.11 0
M  V30 35 O -3.195 1.28 -1.204 0
M  V30 36 Si -0.779 1.965 0.128 0
M  V30 37 H 1.919 4.459 -0.306 0
M  V30 38 H 4.107 5.588 -0.559 0
M  V30 39 H 7.318 3.777 -1.478 0
M  V30 40 H 5.999 1.766 -1.244 0
M  V30 41 H 3.813 0.645 -1.008 0
M  V30 42 H 1.697 -0.222 0.928 0
M  V30 43 H -0.695 -3.606 3.986 0
M  V30 44 H 0.878 -5.277 4.844 0
M  V30 45 H 4.452 -5.651 3.629 0
M  V30 46 H 3.943 -3.7 2.255 0
M  V30 47 H 2.371 -2.079 1.341 0
M  V30 48 H -2.548 -0.436 1.728 0
M  V30 49 H -4.673 0.646 2.159 0
M  V30 50 H -6.975 1.407 2.644 0
M  V30 51 H -8.783 4.077 0.623 0
M  V30 52 H -6.656 4.41 -0.445 0
M  V30 53 H -4.369 3.649 -0.935 0
M  V30 54 H -0.95 2.784 -0.572 0
M  V30 END ATOM
M  V30 BEGIN BOND
M  V30 1 2 1 2
M  V30 2 1 2 3
M  V30 3 1 2 11
M  V30 4 2 3 4
M  V30 5 1 3 10
M  V30 6 1 4 5
M  V30 7 1 4 37
M  V30 8 2 5 6
M  V30 9 1 5 38
M  V30 10 1 6 7
M  V30 11 1 6 9
M  V30 12 2 7 8
M  V30 13 1 7 39
M  V30 14 2 9 10
M  V30 15 1 9 40
M  V30 16 1 10 41
M  V30 17 2 11 12
M  V30 18 1 11 36
M  V30 19 1 12 13
M  V30 20 1 12 42
M  V30 21 1 13 14
M  V30 22 2 13 24
M  V30 23 1 14 15
M  V30 24 2 14 23
M  V30 25 2 15 16
M  V30 26 1 15 22
M  V30 27 1 16 17
M  V30 28 1 16 43
M  V30 29 2 17 18
M  V30 30 1 17 44
M  V30 31 1 18 19
M  V30 32 1 18 21
M  V30 33 2 19 20
M  V30 34 1 19 45
M  V30 35 2 21 22
M  V30 36 1 21 46
M  V30 37 1 22 47
M  V30 38 1 24 25
M  V30 39 1 24 48
M  V30 40 1 25 26
M  V30 41 2 25 36
M  V30 42 1 26 27
M  V30 43 2 26 35
M  V30 44 2 27 28
M  V30 45 1 27 34
M  V30 46 1 28 29
M  V30 47 1 28 49
M  V30 48 2 29 30
M  V30 49 1 29 50
M  V30 50 1 30 31
M  V30 51 1 30 33
M  V30 52 2 31 32
M  V30 53 1 31 51
M  V30 54 2 33 34
M  V30 55 1 33 52
M  V30 56 1 34 53
M  V30 57 1 36 54
M  V30 END BOND
M  V30 END CTAB
M  END
