
     RDKit          3D

  0  0  0  0  0  0  0  0  0  0999 V3000
M  V30 BEGIN CTAB
M  V30 COUNTS 18 18 0 0 0
M  V30 BEGIN ATOM
M  V30 1 O -3.4118 1.7692 0.1172 0
M  V30 2 C -2.3484 1.9110 -0.4860 0
M  V30 3 C -1.1261 1.1139 -0.2079 0
M  V30 4 C 0.0380 1.3481 -0.9480 0
M  V30 5 C 1.1968 0.6037 -0.6958 0
M  V30 6 C 2.4362 0.8470 -1.4778 0
M  V30 7 O 2.5298 1.6892 -2.3704 0
M  V30 8 C 1.1874 -0.3779 0.3013 0
M  V30 9 C 0.0257 -0.6172 1.0455 0
M  V30 10 C 0.0086 -1.6577 2.1057 0
M  V30 11 O 0.9784 -2.3580 2.3950 0
M  V30 12 C -1.1289 0.1302 0.7886 0
M  V30 13 H -2.2479 2.6525 -1.2796 0
M  V30 14 H 0.0538 2.1073 -1.7230 0
M  V30 15 H 3.2855 0.2180 -1.2085 0
M  V30 16 H 2.0784 -0.9619 0.5069 0
M  V30 17 H -0.9412 -1.7700 2.6299 0
M  V30 18 H -2.0358 -0.0451 1.3579 0
M  V30 END ATOM
M  V30 BEGIN BOND
M  V30 0 2 2 1
M  V30 1 1 13 2
M  V30 2 1 2 3
M  V30 3 1 4 3
M  V30 4 2 3 12
M  V30 5 1 14 4
M  V30 6 2 4 5
M  V30 7 1 6 5
M  V30 8 1 5 8
M  V30 9 2 7 6
M  V30 10 1 6 15
M  V30 11 1 8 16
M  V30 12 2 8 9
M  V30 13 1 12 9
M  V30 14 1 9 10
M  V30 15 2 10 11
M  V30 16 1 10 17
M  V30 17 1 12 18
M  V30 END BOND
M  V30 END CTAB
M  END

$$$$
