40.pdb
 OpenBabel05181708503D

  0  0  0     0  0            999 V3000
M  V30 BEGIN CTAB
M  V30 COUNTS 78 84 0 0 0
M  V30 BEGIN ATOM
M  V30 1 O -2.67 5.178 -10.637 0
M  V30 2 C -3.433 5.378 -9.696 0
M  V30 3  C -3.13 4.837 -8.353 0
M  V30 4  C -3.979 5.112 -7.278 0
M  V30 5  C -3.684 4.593 -6.008 0
M  V30 6  C -1.995 4.043 -8.165 0
M  V30 7  C -1.716 3.525 -6.899 0
M  V30 8  C -2.55 3.79 -5.801 0
M  V30 9  C -2.223 3.22 -4.487 0
M  V30 10  C -1.011 3.531 -3.861 0
M  V30 11  C -0.621 2.889 -2.68 0
M  V30 12  C -3.071 2.298 -3.858 0
M  V30 13  C -2.684 1.654 -2.679 0
M  V30 14  C -1.438 1.917 -2.084 0
M  V30 15  C -0.945 1.135 -0.932 0
M  V30 16  C -0.359 1.746 0.192 0
M  V30 17  C 0.277 1.005 1.211 0
M  V30 18  C 1.02 1.682 2.305 0
M  V30 19  C 1.697 2.895 2.084 0
M  V30 20  C 2.495 3.486 3.068 0
M  V30 21  C 2.681 2.882 4.323 0
M  V30 22  C 3.652 3.42 5.303 0
M  V30 23  C 4.902 3.91 4.862 0
M  V30 24  C 5.876 4.374 5.76 0
M  V30 25  C 5.614 4.337 7.128 0
M  V30 26 C 6.663 4.786 8.06 0
M  V30 27 O 6.564 4.669 9.276 0
M  V30 28  C 4.385 3.866 7.599 0
M  V30 29  C 3.41 3.425 6.689 0
M  V30 30  C 1.966 1.704 4.57 0
M  V30 31  C 1.146 1.12 3.587 0
M  V30 32  C 0.25 -0.4 1.1 0
M  V30 33  C -0.384 -1.056 0.028 0
M  V30 34  C -0.429 -2.525 -0.078 0
M  V30 35  C -1.636 -3.183 -0.354 0
M  V30 36  C -1.685 -4.57 -0.524 0
M  V30 37  C -0.528 -5.348 -0.424 0
M  V30 38  C -0.558 -6.797 -0.683 0
M  V30 39  C -0.044 -7.718 0.249 0
M  V30 40  C -0.021 -9.093 -0.019 0
M  V30 41  C -0.511 -9.561 -1.241 0
M  V30 42 C -0.44 -11.004 -1.548 0
M  V30 43 O -0.608 -11.43 -2.685 0
M  V30 44  C -1.033 -8.668 -2.18 0
M  V30 45  C -1.062 -7.297 -1.898 0
M  V30 46  C 0.676 -4.694 -0.122 0
M  V30 47  C 0.725 -3.306 0.048 0
M  V30 48  C -0.958 -0.265 -0.98 0
M  V30 49 H -4.361 5.963 -9.803 0
M  V30 50 H -4.862 5.732 -7.413 0
M  V30 51 H -4.35 4.82 -5.176 0
M  V30 52 H -1.327 3.817 -8.995 0
M  V30 53 H -0.84 2.889 -6.769 0
M  V30 54 H -0.332 4.256 -4.317 0
M  V30 55 H 0.355 3.124 -2.255 0
M  V30 56 H -4.021 2.035 -4.314 0
M  V30 57 H -3.352 0.912 -2.243 0
M  V30 58 H -0.39 2.834 0.261 0
M  V30 59 H 1.65 3.386 1.115 0
M  V30 60 H 2.999 4.421 2.827 0
M  V30 61 H 5.144 3.904 3.798 0
M  V30 62 H 6.831 4.724 5.368 0
M  V30 63 H 7.573 5.221 7.6 0
M  V30 64 H 4.174 3.835 8.67 0
M  V30 65 H 2.454 3.079 7.081 0
M  V30 66 H 2.078 1.19 5.525 0
M  V30 67 H 0.631 0.196 3.842 0
M  V30 68 H 0.754 -1.007 1.852 0
M  V30 69 H -2.559 -2.619 -0.459 0
M  V30 70 H -2.642 -5.036 -0.751 0
M  V30 71 H 0.354 -7.363 1.199 0
M  V30 72 H 0.393 -9.771 0.725 0
M  V30 73 H -0.201 -11.678 -0.709 0
M  V30 74 H -1.406 -9.029 -3.135 0
M  V30 75 H -1.459 -6.617 -2.65 0
M  V30 76 H 1.598 -5.269 -0.045 0
M  V30 77 H 1.687 -2.842 0.236 0
M  V30 78 H -1.379 -0.762 -1.858 0
M  V30 END ATOM
M  V30 BEGIN BOND
M  V30 1 2 1 2
M  V30 2 1 2 3
M  V30 3 1 2 49
M  V30 4 2 3 4
M  V30 5 1 3 6
M  V30 6 1 4 5
M  V30 7 1 4 50
M  V30 8 2 5 8
M  V30 9 1 5 51
M  V30 10 2 6 7
M  V30 11 1 6 52
M  V30 12 1 7 8
M  V30 13 1 7 53
M  V30 14 1 8 9
M  V30 15 2 9 10
M  V30 16 1 9 12
M  V30 17 1 10 11
M  V30 18 1 10 54
M  V30 19 2 11 14
M  V30 20 1 11 55
M  V30 21 2 12 13
M  V30 22 1 12 56
M  V30 23 1 13 14
M  V30 24 1 13 57
M  V30 25 1 14 15
M  V30 26 2 15 16
M  V30 27 1 15 48
M  V30 28 1 16 17
M  V30 29 1 16 58
M  V30 30 1 17 18
M  V30 31 2 17 32
M  V30 32 2 18 19
M  V30 33 1 18 31
M  V30 34 1 19 20
M  V30 35 1 19 59
M  V30 36 2 20 21
M  V30 37 1 20 60
M  V30 38 1 21 22
M  V30 39 1 21 30
M  V30 40 2 22 23
M  V30 41 1 22 29
M  V30 42 1 23 24
M  V30 43 1 23 61
M  V30 44 2 24 25
M  V30 45 1 24 62
M  V30 46 1 25 26
M  V30 47 1 25 28
M  V30 48 2 26 27
M  V30 49 1 26 63
M  V30 50 2 28 29
M  V30 51 1 28 64
M  V30 52 1 29 65
M  V30 53 2 30 31
M  V30 54 1 30 66
M  V30 55 1 31 67
M  V30 56 1 32 33
M  V30 57 1 32 68
M  V30 58 1 33 34
M  V30 59 2 33 48
M  V30 60 2 34 35
M  V30 61 1 34 47
M  V30 62 1 35 36
M  V30 63 1 35 69
M  V30 64 2 36 37
M  V30 65 1 36 70
M  V30 66 1 37 38
M  V30 67 1 37 46
M  V30 68 2 38 39
M  V30 69 1 38 45
M  V30 70 1 39 40
M  V30 71 1 39 71
M  V30 72 2 40 41
M  V30 73 1 40 72
M  V30 74 1 41 42
M  V30 75 1 41 44
M  V30 76 2 42 43
M  V30 77 1 42 73
M  V30 78 2 44 45
M  V30 79 1 44 74
M  V30 80 1 45 75
M  V30 81 2 46 47
M  V30 82 1 46 76
M  V30 83 1 47 77
M  V30 84 1 48 78
M  V30 END BOND
M  V30 END CTAB
M  END
