51.pdb
 OpenBabel05181708503D

  0  0  0     0  0            999 V3000
M  V30 BEGIN CTAB
M  V30 COUNTS 41 43 0 0 0
M  V30 BEGIN ATOM
M  V30 1 C 0.894 -0.801 -0.009 0
M  V30 2 C 0.689 0.408 0.913 0
M  V30 3 C 1.707 1.378 1.007 0
M  V30 4 C 1.554 2.505 1.819 0
M  V30 5 C 0.375 2.677 2.545 0
M  V30 6 C 0.219 3.869 3.402 0
M  V30 7 O -0.789 4.066 4.069 0
M  V30 8 C -0.649 1.733 2.46 0
M  V30 9 C -0.494 0.609 1.645 0
M  V30 10 C 0.691 -0.495 -1.5 0
M  V30 11 C 1.431 -1.219 -2.454 0
M  V30 12 C 1.264 -0.987 -3.822 0
M  V30 13 C 0.346 -0.027 -4.251 0
M  V30 14 C 0.173 0.215 -5.697 0
M  V30 15 O -0.61 1.052 -6.13 0
M  V30 16 C -0.404 0.695 -3.322 0
M  V30 17 C -0.236 0.459 -1.956 0
M  V30 18 C 0.193 -2.081 0.469 0
M  V30 19 C -1.025 -2.524 -0.076 0
M  V30 20 C -1.64 -3.684 0.401 0
M  V30 21 C -1.049 -4.411 1.435 0
M  V30 22 C -1.695 -5.637 1.946 0
M  V30 23 O -2.745 -6.063 1.482 0
M  V30 24 C 0.153 -3.984 1.999 0
M  V30 25 C 0.768 -2.824 1.518 0
M  V30 26 H 1.969 -1.031 0.077 0
M  V30 27 H 2.627 1.261 0.436 0
M  V30 28 H 2.356 3.237 1.871 0
M  V30 29 H 1.062 4.58 3.415 0
M  V30 30 H -1.571 1.871 3.022 0
M  V30 31 H -1.314 -0.105 1.591 0
M  V30 32 H 2.142 -1.979 -2.133 0
M  V30 33 H 1.848 -1.562 -4.536 0
M  V30 34 H 0.788 -0.398 -6.377 0
M  V30 35 H -1.123 1.44 -3.658 0
M  V30 36 H -0.842 1.031 -1.256 0
M  V30 37 H -1.514 -1.972 -0.876 0
M  V30 38 H -2.581 -4.015 -0.035 0
M  V30 39 H -1.18 -6.157 2.771 0
M  V30 40 H 0.62 -4.537 2.81 0
M  V30 41 H 1.7 -2.495 1.974 0
M  V30 END ATOM
M  V30 BEGIN BOND
M  V30 1 1 1 2
M  V30 2 1 1 10
M  V30 3 1 1 18
M  V30 4 1 1 26
M  V30 5 2 2 3
M  V30 6 1 2 9
M  V30 7 1 3 4
M  V30 8 1 3 27
M  V30 9 2 4 5
M  V30 10 1 4 28
M  V30 11 1 5 6
M  V30 12 1 5 8
M  V30 13 2 6 7
M  V30 14 1 6 29
M  V30 15 2 8 9
M  V30 16 1 8 30
M  V30 17 1 9 31
M  V30 18 2 10 11
M  V30 19 1 10 17
M  V30 20 1 11 12
M  V30 21 1 11 32
M  V30 22 2 12 13
M  V30 23 1 12 33
M  V30 24 1 13 14
M  V30 25 1 13 16
M  V30 26 2 14 15
M  V30 27 1 14 34
M  V30 28 2 16 17
M  V30 29 1 16 35
M  V30 30 1 17 36
M  V30 31 2 18 19
M  V30 32 1 18 25
M  V30 33 1 19 20
M  V30 34 1 19 37
M  V30 35 2 20 21
M  V30 36 1 20 38
M  V30 37 1 21 22
M  V30 38 1 21 24
M  V30 39 2 22 23
M  V30 40 1 22 39
M  V30 41 2 24 25
M  V30 42 1 24 40
M  V30 43 1 25 41
M  V30 END BOND
M  V30 END CTAB
M  END
