7.pdb
 OpenBabel05191714523D

  0  0  0     0  0            999 V3000
M  V30 BEGIN CTAB
M  V30 COUNTS 28 30 0 0 0
M  V30 BEGIN ATOM
M  V30 1 N -1.349 0.731 0.022 0
M  V30 2 Ge -0.197 0.065 -0.503 0
M  V30 3 Ge 0.586 0.676 -1.527 0
M  V30 4 Ge 1.786 0.048 -1.95 0
M  V30 5 Ge 2.552 0.684 -2.962 0
M  V30 6 Ge 2.164 1.889 -3.548 0
M  V30 7 Ge 0.996 2.501 -3.135 0
M  V30 8 Ge 0.223 1.904 -2.139 0
M  V30 9 Ge 2.182 -1.181 -1.343 0
M  V30 10 N 3.44 -1.778 -1.67 0
M  V30 11 Ge 1.462 -1.716 -0.239 0
M  V30 12 Ge 1.893 -2.876 0.448 0
M  V30 13 Ge 1.183 -3.408 1.524 0
M  V30 14 Ge 0.013 -2.795 1.938 0
M  V30 15 Ge -0.438 -1.655 1.272 0
M  V30 16 Ge 0.269 -1.091 0.182 0
M  V30 17 H -1.06 1.357 0.771 0
M  V30 18 H -1.853 1.247 -0.69 0
M  V30 19 H 3.485 0.251 -3.311 0
M  V30 20 H 2.779 2.344 -4.32 0
M  V30 21 H 0.682 3.442 -3.579 0
M  V30 22 H -0.678 2.431 -1.84 0
M  V30 23 H 4.163 -1.379 -1.074 0
M  V30 24 H 3.684 -1.652 -2.646 0
M  V30 25 H 2.8 -3.388 0.131 0
M  V30 26 H 1.543 -4.302 2.026 0
M  V30 27 H -0.558 -3.202 2.768 0
M  V30 28 H -1.371 -1.203 1.604 0
M  V30 END ATOM
M  V30 BEGIN BOND
M  V30 1 1 1 2
M  V30 2 1 1 17
M  V30 3 1 1 18
M  V30 4 2 2 3
M  V30 5 1 2 16
M  V30 6 1 3 4
M  V30 7 1 3 8
M  V30 8 1 4 5
M  V30 9 2 4 9
M  V30 10 2 5 6
M  V30 11 1 5 19
M  V30 12 1 6 7
M  V30 13 1 6 20
M  V30 14 2 7 8
M  V30 15 1 7 21
M  V30 16 1 8 22
M  V30 17 1 9 10
M  V30 18 1 9 11
M  V30 19 1 10 23
M  V30 20 1 10 24
M  V30 21 2 11 12
M  V30 22 1 11 16
M  V30 23 1 12 13
M  V30 24 1 12 25
M  V30 25 2 13 14
M  V30 26 1 13 26
M  V30 27 1 14 15
M  V30 28 1 14 27
M  V30 29 2 15 16
M  V30 30 1 15 28
M  V30 END BOND
M  V30 END CTAB
M  END
