93.pdb
 OpenBabel05181709483D

  0  0  0     0  0            999 V3000
M  V30 BEGIN CTAB
M  V30 COUNTS 20 20 0 0 1
M  V30 BEGIN ATOM
M  V30 1 N -1.535 -0.79 0.832 0
M  V30 2 Ge -0.102 -1.122 0.962 0
M  V30 3 Ge 0.63 -0.101 1.855 0
M  V30 4 Ge 2.126 -0.256 1.815 0
M  V30 5 Ge 2.764 -0.984 0.885 0
M  V30 6 Ge 2.053 -1.687 -0.24 0
M  V30 7 Ge 0.599 -1.208 -0.42 0
M  V30 8 N -0.139 -2.079 -1.358 0
M  V30 9 H -1.977 -1.571 0.344 0
M  V30 10 H -1.954 -0.778 1.761 0
M  V30 11 H -0.044 -2.108 1.444 0
M  V30 12 H 0.385 0.924 1.55 0
M  V30 13 H 0.287 -0.218 2.891 0
M  V30 14 H 2.698 0.248 2.59 0
M  V30 15 H 3.846 -1.078 0.924 0
M  V30 16 H 2.082 -2.765 -0.041 0
M  V30 17 H 2.606 -1.518 -1.172 0
M  V30 18 H 0.619 -0.203 -0.866 0
M  V30 19 H 0.343 -2.076 -2.256 0
M  V30 20 H -1.041 -1.631 -1.531 0
M  V30 END ATOM
M  V30 BEGIN BOND
M  V30 1 1 1 2
M  V30 2 1 1 9
M  V30 3 1 1 10
M  V30 4 1 2 3
M  V30 5 1 2 7
M  V30 6 1 2 11
M  V30 7 1 3 4
M  V30 8 1 3 12
M  V30 9 1 3 13
M  V30 10 2 4 5
M  V30 11 1 4 14
M  V30 12 1 5 6
M  V30 13 1 5 15
M  V30 14 1 6 7
M  V30 15 1 6 16
M  V30 16 1 6 17
M  V30 17 1 7 8
M  V30 18 1 7 18
M  V30 19 1 8 19
M  V30 20 1 8 20
M  V30 END BOND
M  V30 END CTAB
M  END
